31
energy = -37.5982905823007
Zr      -1.41696950132151       1.22477470022882      -0.07881871658107
C       -0.61145439052671       2.01934587977706       2.07412927897759
C       -0.61254513420633       1.86138981843476      -2.29240260398128
C       -1.43535112787067       0.89127568981724       2.32213512029038
C       -1.43542280265563       3.06183447509340       1.58064603893077
C       -1.04804104668624       3.06478914882062      -1.68035797397497
C       -1.74188679721287       1.02831368646048      -2.47522931225683
C       -2.76862568685905       1.24053311508050       1.98074344043204
C       -2.76766763454995       2.58196359965017       1.52990302021640
C       -2.45363870111891       2.98916637701499      -1.52378507912179
C       -2.88313655717066       1.72267782270635      -1.98623153295973
H        0.42992320641087       2.12316312912559       2.36750492750920
H        0.38516702535797       1.67611952723241      -2.67968308799832
H       -1.13071345432376      -0.01339783851523       2.84112556030262
H       -1.13357193817264       4.09620813697179       1.43733078348655
H       -0.44503556816078       3.95823456330835      -1.53824903925791
H       -1.75818062754388       0.10013503228180      -3.04041833185930
H       -3.65855324598716       0.66189797094132       2.21414008095417
H       -3.65159069234439       3.18684737761219       1.34635495986736
H       -3.10186651287045       3.81491113727755      -1.24430440284278
H       -3.91936840863397       1.42851513785538      -2.13595841761873
H        0.85894662323010      -0.63943118382629       0.60019319961928
H        0.68317694228711      -0.48046402896786      -1.13332766305022
C        0.48354030306357       0.03035497172649      -0.18204921310366
H        1.10345564979279       0.94161285078618      -0.15169963468359
C       -1.53800025296054      -1.77731960167255       0.02434487488861
C       -2.73989233256405      -1.24754404868941      -0.22735655999444
H       -3.44474215440489      -1.04020083160723       0.57677038234664
H       -1.17875850865094      -1.94446261855553       1.03826179929603
H       -0.91592886491550      -2.18002840787307      -0.76784776573213
H       -3.13631325702437      -1.22682353751482      -1.24100059402264
