31
energy = -37.6077491378136
Zr      -1.33261505584568       1.28316774214603      -0.06516934017812
C       -0.60045427085102       2.00293498401397       2.14484670881763
C       -0.62776014979136       1.73020687875149      -2.36368681200780
C       -1.41047169208658       0.85503558775366       2.33307111157343
C       -1.41922744993647       3.03567559423966       1.62287311161787
C       -0.97128446538383       2.97754774056946      -1.78020167187339
C       -1.79873746623045       0.93928825578971      -2.42883931134885
C       -2.73281880398125       1.18077997424176       1.93606022987390
C       -2.74016398845022       2.53001545834585       1.50776428564344
C       -2.36430536133280       2.96755795026389      -1.52378762482163
C       -2.87445031393369       1.70082267143517      -1.89877208285501
H        0.42574570122519       2.11773159849374       2.48383112479027
H        0.32778386006375       1.48689722190265      -2.82015189932446
H       -1.10604190235963      -0.05711157147355       2.84008870610218
H       -1.12559612649653       4.07530013918872       1.49530136494430
H       -0.31950192610324       3.84586528604023      -1.71004263924499
H       -1.88923198692298      -0.01249523984556      -2.94738382821803
H       -3.61686178481058       0.57277390138108       2.11122286153048
H       -3.62733397179347       3.11632820260520       1.28288359533118
H       -2.95908445850048       3.82669592054255      -1.22292125955690
H       -3.92830705862988       1.43468433104876      -1.95026526052702
H        0.93611464030342      -0.21046719781221       0.80561843713691
H        0.90853730348122      -0.22534012113224      -0.95843173762218
C        0.71050601534545       0.40111299118535      -0.07836282876258
H        1.44120236191036       1.22458265382581      -0.09726224514459
C       -1.72741504362671      -1.72455619514609      -0.12626152250582
C       -3.01205236987457      -1.39999928467978      -0.25953953809395
H       -3.67690988525833      -1.32391062005898       0.59471083917566
H       -1.28986040795522      -1.94001357841881       0.84871255091159
H       -1.10092416697013      -1.93980874894021      -0.98664434772529
H       -3.48152522379773      -1.31691047527589      -1.23439743956000
