31
energy = -37.6499109280549
Zr      -1.67469659920957       1.37245139238114      -0.09369253654613
C       -0.64965132276873       2.06444042653986       1.99433464820098
C       -0.61955831702723       2.04588164222114      -2.18149366485674
C       -1.48522459632954       0.96230440189628       2.30692619301232
C       -1.48046944571047       3.13164731159376       1.56684632102347
C       -1.17193466946522       3.21638114036760      -1.60090754671008
C       -1.68843311061537       1.18113249870739      -2.52164499750896
C       -2.82801301732639       1.33745176828112       2.04961490164796
C       -2.82542879738657       2.67910297928923       1.58930098612415
C       -2.58233398052089       3.06923839011768      -1.57558394151117
C       -2.90275234294102       1.80437920398044      -2.13166678850548
H        0.41343566710758       2.13739721986364       2.21418457998711
H        0.42082118385395       1.91357065931238      -2.46967538024954
H       -1.16624559669451       0.04830746288779       2.79930349595538
H       -1.16005904053386       4.15644327618066       1.39597029300104
H       -0.62426767991921       4.12680596364823      -1.37016078212805
H       -1.60307055794410       0.27071499084525      -3.10786701281885
H       -3.71011485821268       0.76081002000275       2.31623025956422
H       -3.70584723165533       3.30147543087593       1.44595817179128
H       -3.29576530810064       3.84767032749802      -1.31589215595171
H       -3.90330752480401       1.45245153125344      -2.37425892362973
H        1.16791650403655      -1.22962451867054       0.21651494734170
H        0.42575127339655      -0.99784848937771      -1.38069148220241
C        0.28041573837492      -0.87223419955880      -0.30522170702711
H        0.17799076726071       0.23468191588331      -0.08867182654314
C       -0.98700591651093      -1.59517095060903       0.17284957911630
C       -2.23970197154943      -0.78662220731473      -0.21047845025282
H       -3.06643817610269      -1.07782257857117       0.45816099966155
H       -0.93753471404611      -1.72198923898736       1.26145773092295
H       -1.01762937238049      -2.59346072588513      -0.27736112724739
H       -2.54389243486866      -1.08557499367109      -1.22752124558284
