31
energy = -37.6018247543789
Zr      -1.40225486249109       1.24854467988558      -0.07609851228555
C       -0.60902429030710       2.01916100347941       2.08597838135277
C       -0.61364967949112       1.84499537488804      -2.30378676986865
C       -1.43121986011562       0.88759446092227       2.32334905320255
C       -1.43249915620372       3.06081669839680       1.58921127008087
C       -1.03658067771769       3.05540724149231      -1.69626411160136
C       -1.74929738875592       1.01613269827182      -2.46779196437617
C       -2.76302078135357       1.23355089342868       1.97394051639030
C       -2.76344022372977       2.57677895389788       1.52834657327691
C       -2.44129964845331       2.98800437050966      -1.52467246841835
C       -2.88178507529252       1.72019857745697      -1.97370507645225
H        0.43046212303804       2.12375868315963       2.38586041693067
H        0.37835612928447       1.65117589869663      -2.70134085493357
H       -1.12698526898630      -0.01868628563923       2.83977015118031
H       -1.13209740567411       4.09616330552846       1.44851069293333
H       -0.42668116777979       3.94589915100313      -1.56426682704546
H       -1.77582908274880       0.08372523124606      -3.02560204346590
H       -3.65220379146012       0.65021581055619       2.19825867842340
H       -3.64835092275927       3.17857827404709       1.33923040125448
H       -3.08296844020442       3.81799282472601      -1.24252142821899
H       -3.92079414273099       1.42841190440108      -2.10814412566203
H        0.85236020083647      -0.56852522648046       0.63509499186116
H        0.70536277306632      -0.43760845180929      -1.10537004906102
C        0.52152094391860       0.10313313825808      -0.16724368463800
H        1.19197460122064       0.97739913875188      -0.15223345549570
C       -1.57359722424573      -1.79228214570719       0.00256859100379
C       -2.78564889575544      -1.29016910494269      -0.23185706763894
H       -3.48269494905884      -1.08251425618972       0.57781542943006
H       -1.19785491234246      -1.95722651049238       1.00912047869141
H       -0.94153832313715      -2.15666554981064      -0.80116546578113
H       -3.19176604916307      -1.24956873095061      -1.24012818299073
