31
energy = -37.6055554481424
Zr      -1.37695427090805       1.26920462172343      -0.07094251660806
C       -0.60518416919312       2.01464587654657       2.11054082164391
C       -0.61858486780404       1.80060176118912      -2.32830486343270
C       -1.42294645869316       0.87628665839444       2.32762265375405
C       -1.42710452744783       3.05318452472193       1.60470578333841
C       -1.01049264232909       3.02666133439470      -1.73068975846411
C       -1.76902419457201       0.98546660419567      -2.45233827661065
C       -2.75127695998188       1.21417457727971       1.95951544986797
C       -2.75442917107894       2.56030959753820       1.52177914334988
C       -2.41171445897580       2.98150214966569      -1.52526697814789
C       -2.87988441434117       1.71283854573593      -1.94468117974889
H        0.42932780941687       2.12268106665937       2.42579594771949
H        0.35941884933947       1.58713398601669      -2.74956029938724
H       -1.11852068235989      -0.03293541867661       2.83884268470749
H       -1.12948259662810       4.09031597994172       1.46963495402810
H       -0.38368103374422       3.90887685849194      -1.62343405673324
H       -1.82037694295620       0.04413158364057      -2.99318465216678
H       -3.63854902802424       0.62061293510948       2.16396182774491
H       -3.64070485770586       3.15578811008482       1.31908658602380
H       -3.03550226095112       3.82270663892028      -1.23609992043766
H       -3.92525384320551       1.43025084644842      -2.04633303260013
H        0.87367258967727      -0.42528928842175       0.70785180446885
H        0.77852863094804      -0.35504507578035      -1.04475027789440
C        0.59777767984921       0.22640064094549      -0.13053703711834
H        1.30904296980901       1.06644458136323      -0.13404848146225
C       -1.63124554242031      -1.77238151224610      -0.05139211668944
C       -2.87764388473009      -1.33862419874938      -0.24337789134005
H       -3.56207215288238      -1.18011847526187       0.58621864355807
H       -1.23058940729726      -1.95531394405628       0.94230619630878
H       -0.99947850712109      -2.07462473141834      -0.88014539527974
H       -3.31011710228191      -1.28149478341525      -1.23791222431392
