31
energy = -37.6466976275256
Zr      -1.66358438172992       1.34429225007299      -0.08959265816745
C       -0.63866457335156       2.04506193585327       2.02836972711991
C       -0.62006164925493       1.95232306889479      -2.23073514288236
C       -1.47062626253297       0.93512977088695       2.32118898321827
C       -1.46618790065207       3.10290609310604       1.57794101566247
C       -1.11360900995813       3.14305805875599      -1.64050231377857
C       -1.72366957033775       1.11332866843335      -2.51291440316240
C       -2.81013034507424       1.29893328210549       2.03729454183794
C       -2.80860478081323       2.64075163947221       1.57364959907480
C       -2.52675067491232       3.04124644572806      -1.56556093360649
C       -2.90530342574767       1.77888350413197      -2.09013581224047
H        0.41664631136437       2.12902170960654       2.27718704028451
H        0.40328012220628       1.78620469893322      -2.55779520142688
H       -1.15239124552860       0.01937317805029       2.81147481490605
H       -1.14890884306993       4.12996859982344       1.41637443519521
H       -0.53137406130371       4.04094136786074      -1.44972691308956
H       -1.68510699938093       0.18478211753390      -3.07565246824862
H       -3.69325267223328       0.71451083399434       2.28235363608677
H       -3.69039512492774       3.25507202093205       1.40673547948168
H       -3.20477625220941       3.84504598360361      -1.28972660589184
H       -3.92454066058668       1.44724841428721      -2.27763461686697
H        1.08682601467035      -1.05540856316718       0.38530518516037
H        0.56453152172408      -0.81274175783389      -1.28794693385250
C        0.27200006737173      -0.69232019868687      -0.24211991230843
H        0.19698546987066       0.41984231358769      -0.03758652483253
C       -1.01664215334589      -1.49574901221076       0.07686649658895
C       -2.34394652458651      -0.76837051001828      -0.22520205865394
H       -3.09947913506570      -1.09559056945197       0.50973913392633
H       -0.99782621755550      -1.77514617461494       1.13697369430100
H       -0.95629734124196      -2.41704793428545      -0.51092750925975
H       -2.73118515040023      -1.10115918440334      -1.20283023649727
