31
energy = -37.5843951947713
Zr      -1.49658960523887       1.14227761072722      -0.08655225614091
C       -0.61852740071528       2.01640146074048       2.05472342571434
C       -0.61427941699515       1.87582384319679      -2.27551250883493
C       -1.44480065097291       0.89565095158273       2.32495199069465
C       -1.44192903825001       3.05867669453301       1.56599597255370
C       -1.06341619153331       3.07012350638412      -1.65818780143135
C       -1.73686145205086       1.04323291766725      -2.49112719864813
C       -2.78007562359739       1.24763534893402       1.99493015333154
C       -2.77555282323212       2.58491324446419       1.52757523096986
C       -2.46894525153747       2.98817909941817      -1.52149470906048
C       -2.88865220940135       1.72618052087526      -2.00695917176846
H        0.42492459728849       2.12007254641145       2.34023399594315
H        0.39063659091172       1.70059423972742      -2.64873549777453
H       -1.13654580957000      -0.00787660761879       2.84355436127634
H       -1.13687724008240       4.09102488356630       1.41862868394376
H       -0.46712457308902       3.96543496681104      -1.50414178977632
H       -1.74031456295490       0.11887944638727      -3.06229518633381
H       -3.67037704657553       0.67493723766404       2.24014882823682
H       -3.65713060392305       3.19543710677028       1.35183732541435
H       -3.12259237345786       3.81032942312239      -1.24443585307319
H       -3.92170094709511       1.43115919047598      -2.17536762709462
H        0.93598670746238      -0.78971303629885       0.55161116061147
H        0.68154666254953      -0.58591587740238      -1.17796492596035
C        0.39174934735304      -0.20824829006525      -0.19377814477339
H        0.75927246984388       0.84475510956895      -0.10912151181038
C       -1.36991577990144      -1.57910334586715       0.03612626439001
C       -2.61837760331797      -1.02735917800885      -0.22480874563069
H       -3.35599558000985      -1.01729209884706       0.58002394568607
H       -1.12376659441875      -1.87408954195761       1.05472239734230
H       -0.88352116703353      -2.18094865391888      -0.72598089958795
H       -3.03329227904833      -1.17678066806211      -1.22373637033064
