31
energy = -37.6275501404295
Zr      -1.60915578725617       1.24317662471138      -0.08968467023188
C       -0.62517852055045       2.02278231069669       2.05080962286476
C       -0.61747696956794       1.88661301652034      -2.26788425112300
C       -1.45375348285740       0.90593338223018       2.32744323579981
C       -1.44880246537808       3.06940385394123       1.57276512544336
C       -1.07124737484878       3.08273534398893      -1.65825797302324
C       -1.73964644965886       1.05899107184960      -2.50090799553315
C       -2.78964952927957       1.25909600224356       2.01153877699170
C       -2.78566675807864       2.59803800060525       1.54034943582349
C       -2.48051530915447       3.00289626019895      -1.53578761189595
C       -2.89680189024645       1.74393496550986      -2.03682772445443
H        0.42110620978569       2.12090858866101       2.32873430165268
H        0.39092504844969       1.70854510718201      -2.63136427698387
H       -1.14016645309773      -0.00368674947714       2.83223870798542
H       -1.13928267446262       4.09988187651260       1.42084711485617
H       -0.47376863890077       3.97625655149505      -1.49829027920737
H       -1.73533639973080       0.12787184204394      -3.06087647730570
H       -3.67697125902820       0.67926713879674       2.24997674889171
H       -3.66725037892448       3.20879538544722       1.36295065208376
H       -3.13583194993353       3.82268256691372      -1.25433090341725
H       -3.92775699168349       1.43640257290781      -2.19637174944231
H        0.99041268122875      -0.88813797684057       0.52068103737116
H        0.65697287530066      -0.67366416292357      -1.19495438359037
C        0.26963020904864      -0.48161382664373      -0.18951369784233
H        0.41149553435791       0.64938277179114      -0.05868102209392
C       -1.09694272452907      -1.40269550744933       0.02012620480768
C       -2.49517845812864      -0.80778357309163      -0.23216754659219
H       -3.22196082102151      -1.08764563850787       0.55178723679345
H       -1.06294457962711      -1.82066640901546       1.03727139421801
H       -0.90740317978450      -2.22528209953177      -0.67947625935720
H       -2.92489896103549      -1.15802723978465      -1.18727923541077
