31
energy = -37.5874786523412
Zr      -1.45956776926760       1.15993970785034      -0.08417371997159
C       -0.61666250015488       2.01695041950813       2.05760513064349
C       -0.61327137187548       1.87547518540883      -2.27783735302871
C       -1.44239849457116       0.89453278601014       2.32327249666543
C       -1.44057957653637       3.05941027232343       1.56763129518944
C       -1.06172970482558       3.07054476885376      -1.66049443694314
C       -1.73610699095763       1.04100334018151      -2.48721255644068
C       -2.77756513386104       1.24687531330751       1.99123050918416
C       -2.77402848674144       2.58499145836910       1.52885489817830
C       -2.46747451904489       2.98823100342031      -1.52179678915138
C       -2.88686981372282       1.72489715632822      -2.00236818426132
H        0.42659148090833       2.12078466773704       2.34383704076970
H        0.39086931390585       1.69969027564231      -2.65270218116432
H       -1.13565063391611      -0.00825554627063       2.84397818867234
H       -1.13628923782384       4.09221093001420       1.42097481645621
H       -0.46542184464088       3.96619890864681      -1.50742444669446
H       -1.74102149832073       0.11752114192742      -3.05989906492585
H       -3.66808317457361       0.67409375813429       2.23608015017685
H       -3.65600236561828       3.19447882961344       1.35188213701596
H       -3.12117803569605       3.81028061306985      -1.24471470198788
H       -3.92011796412735       1.43026601875543      -2.17028123772499
H        0.90824893356787      -0.75583096872022       0.55615111908666
H        0.67629766833269      -0.55818131065372      -1.17107132059520
C        0.42059250356084      -0.12862905148575      -0.19616254651221
H        0.87120011415715       0.88139173511031      -0.12564883921581
C       -1.44304066978284      -1.66766481478703       0.04240635106677
C       -2.65477197971289      -1.11698203003810      -0.22306369261236
H       -3.38115063166568      -1.00151582848306       0.57990649533174
H       -1.13861665733256      -1.89387505914023       1.06048796283768
H       -0.88379011933110      -2.18208634906380      -0.73106369613450
H       -3.05545628892532      -1.18235528058837      -1.23352028583210
